omf/uploads/PEC.glm
clock {
	timezone PST+8PDT;
	starttime '2000-01-01 00:00:00';
	stoptime '2000-01-01 00:00:00';
};

#set minimum_timestep=60;
#set profiler=1;
#set relax_naming_rules=1;
module generators;
module tape;
module residential {
	implicit_enduses NONE;
};

module powerflow {
	solver_method NR;
	NR_iteration_limit 50;
};

object overhead_line_conductor {
	resistance 0.303039;
	name UNKNOWN;
	geometric_mean_radius 0.016680;
};

object line_spacing {
	distance_AN 14.631957;
	name UNKNOWN;
	distance_CN 11.004272;
	distance_BC 8.116350;
	distance_AB 8.116350;
	distance_BN 12.174524;
	distance_AC 15.748031;
};

object line_configuration {
	name olc49;
	spacing UNKNOWN;
	conductor_N O1_0_ACSR;
	conductor_A O1_0_ACSR;
	conductor_C O795_AAC;
	conductor_B O4_ACSR;
};

object line_configuration {
	name olc48;
	spacing UNKNOWN;
	conductor_N O1_0_ACSR;
	conductor_A O1_0_ACSR;
	conductor_C O4_ACSR;
	conductor_B O4_ACSR;
};

object line_configuration {
	name olc41;
	spacing UNKNOWN;
	conductor_N O4_ACSR;
	conductor_A O336_AAC;
	conductor_C O336_AAC;
	conductor_B O4_ACSR;
};

object line_configuration {
	name olc40;
	spacing UNKNOWN;
	conductor_N O4_ACSR;
	conductor_A O4_ACSR;
	conductor_C O336_AAC;
	conductor_B O1_0_ACSR;
};

object line_configuration {
	name olc43;
	spacing UNKNOWN;
	conductor_N O4_ACSR;
	conductor_A O4_ACSR;
	conductor_C O4_ACSR;
	conductor_B O336_AAC;
};

object line_configuration {
	name olc42;
	spacing UNKNOWN;
	conductor_N O4_ACSR;
	conductor_A O4_ACSR;
	conductor_C O336_AAC;
	conductor_B O4_ACSR;
};

object line_configuration {
	name olc45;
	spacing UNKNOWN;
	conductor_N O4_ACSR;
	conductor_A O4_ACSR;
	conductor_C O4_ACSR;
	conductor_B O1_0_ACSR;
};

object line_configuration {
	name olc44;
	spacing UNKNOWN;
	conductor_N O1_0_ACSR;
	conductor_A O4_ACSR;
	conductor_C O336_AAC;
	conductor_B O1_0_ACSR;
};

object line_configuration {
	name olc47;
	spacing UNKNOWN;
	conductor_N O4_ACSR;
	conductor_A O1_0_ACSR;
	conductor_C O1_0_ACSR;
	conductor_B O4_ACSR;
};

object line_configuration {
	name olc46;
	spacing UNKNOWN;
	conductor_N O1_0_ACSR;
	conductor_A O4_ACSR;
	conductor_C O4_ACSR;
	conductor_B O1_0_ACSR;
};

object line_configuration {
	name olc58;
	spacing UNKNOWN;
	conductor_N O4_ACSR;
	conductor_A O4_ACSR;
	conductor_C O1_0_ACSR;
	conductor_B O795_AAC;
};

object line_configuration {
	name olc59;
	spacing UNKNOWN;
	conductor_N O336_AAC;
	conductor_A O336_AAC;
	conductor_C O4_ACSR;
	conductor_B O795_AAC;
};

object line_configuration {
	name olc52;
	spacing UNKNOWN;
	conductor_N O1_0_ACSR;
	conductor_A O1_0_ACSR;
	conductor_C O795_AAC;
	conductor_B O1_0_ACSR;
};

object line_configuration {
	name olc53;
	spacing UNKNOWN;
	conductor_N UNKNOWN;
	conductor_A O1_0_ACSR;
	conductor_C O4_ACSR;
	conductor_B O1_0_ACSR;
};

object line_configuration {
	name olc50;
	spacing UNKNOWN;
	conductor_N UNKNOWN;
	conductor_A O795_AAC;
	conductor_C O4_ACSR;
	conductor_B O4_ACSR;
};

object line_configuration {
	name olc51;
	spacing UNKNOWN;
	conductor_N O4_ACSR;
	conductor_A O336_AAC;
	conductor_C O795_AAC;
	conductor_B O4_ACSR;
};

object line_configuration {
	name olc56;
	spacing UNKNOWN;
	conductor_N UNKNOWN;
	conductor_A O1_0_ACSR;
	conductor_C O4_ACSR;
	conductor_B O795_AAC;
};

object line_configuration {
	name olc57;
	spacing UNKNOWN;
	conductor_N O1_0_ACSR;
	conductor_A O4_ACSR;
	conductor_C O1_0_ACSR;
	conductor_B O795_AAC;
};

object line_configuration {
	name olc54;
	spacing UNKNOWN;
	conductor_N O4_ACSR;
	conductor_A O795_AAC;
	conductor_C O4_ACSR;
	conductor_B O1_0_ACSR;
};

object line_configuration {
	name olc55;
	spacing UNKNOWN;
	conductor_N O1_0_ACSR;
	conductor_A O4_ACSR;
	conductor_C O1_0_ACSR;
	conductor_B O1_0_ACSR;
};

object line_configuration {
	name olc67;
	spacing UNKNOWN;
	conductor_N O1_0_ACSR;
	conductor_A O4_ACSR;
	conductor_C O1_0_ACSR;
	conductor_B O4_ACSR;
};

object line_configuration {
	name olc66;
	spacing UNKNOWN;
	conductor_N O4_ACSR;
	conductor_A O1_0_ACSR;
	conductor_C O4_ACSR;
	conductor_B O336_AAC;
};

object line_configuration {
	name olc65;
	spacing UNKNOWN;
	conductor_N O1_0_ACSR;
	conductor_A O1_0_ACSR;
	conductor_C O1_0_ACSR;
	conductor_B O336_AAC;
};

object line_configuration {
	name olc64;
	spacing UNKNOWN;
	conductor_N O336_AAC;
	conductor_A O1_0_ACSR;
	conductor_C O1_0_ACSR;
	conductor_B O336_AAC;
};

object line_configuration {
	name olc63;
	spacing UNKNOWN;
	conductor_N O4_ACSR;
	conductor_A O336_AAC;
	conductor_C O4_ACSR;
	conductor_B O1_0_ACSR;
};

object line_configuration {
	name olc62;
	spacing UNKNOWN;
	conductor_N O336_AAC;
	conductor_A O336_AAC;
	conductor_C O4_ACSR;
	conductor_B O1_0_ACSR;
};

object line_configuration {
	name olc61;
	spacing UNKNOWN;
	conductor_N O336_AAC;
	conductor_A O336_AAC;
	conductor_C O4_ACSR;
	conductor_B O336_AAC;
};

object line_configuration {
	name olc60;
	spacing UNKNOWN;
	conductor_N O336_AAC;
	conductor_A O795_AAC;
	conductor_C O795_AAC;
	conductor_B O336_AAC;
};

object line_configuration {
	name olc69;
	spacing UNKNOWN;
	conductor_N O1_0_ACSR;
	conductor_A O336_AAC;
	conductor_C O1_0_ACSR;
	conductor_B O336_AAC;
};

object line_configuration {
	name olc68;
	spacing UNKNOWN;
	conductor_N O336_AAC;
	conductor_A O4_ACSR;
	conductor_C O795_AAC;
	conductor_B O336_AAC;
};

object line_configuration {
	name olc70;
	spacing UNKNOWN;
	conductor_N O4_ACSR;
	conductor_A O4_ACSR;
	conductor_C O1_0_ACSR;
	conductor_B O336_AAC;
};

object line_configuration {
	name olc71;
	spacing UNKNOWN;
	conductor_N O336_AAC;
	conductor_A O795_AAC;
	conductor_C O336_AAC;
	conductor_B O4_ACSR;
};

object line_configuration {
	name olc72;
	spacing UNKNOWN;
	conductor_N O336_AAC;
	conductor_A O4_ACSR;
	conductor_C O336_AAC;
	conductor_B O1_0_ACSR;
};

object line_configuration {
	name olc73;
	spacing UNKNOWN;
	conductor_N UNKNOWN;
	conductor_A O795_AAC;
	conductor_C O795_AAC;
	conductor_B O795_AAC;
};

object line_configuration {
	name olc74;
	spacing UNKNOWN;
	conductor_N UNKNOWN;
	conductor_A O336_AAC;
	conductor_C O4_ACSR;
	conductor_B O795_AAC;
};

object line_configuration {
	name olc75;
	spacing UNKNOWN;
	conductor_N O336_ACSR;
	conductor_A O795_ACSR;
	conductor_C O795_ACSR;
	conductor_B O795_ACSR;
};

object line_configuration {
	name olc76;
	spacing UNKNOWN;
	conductor_N O1_0_ACSR;
	conductor_A O795_ACSR;
	conductor_C O795_ACSR;
	conductor_B O1_0_ACSR;
};

object line_configuration {
	name olc77;
	spacing UNKNOWN;
	conductor_N O4_ACSR;
	conductor_A O795_ACSR;
	conductor_C O4_ACSR;
	conductor_B O1_0_ACSR;
};

object line_configuration {
	name olc78;
	spacing UNKNOWN;
	conductor_N O1_0_ACSR;
	conductor_A O1_0_ACSR;
	conductor_C O4_ACSR;
	conductor_B O795_AAC;
};

object line_configuration {
	name olc106;
	spacing UNKNOWN;
	conductor_N O795_AAC;
	conductor_A O795_AAC;
	conductor_C O795_AAC;
	conductor_B O795_AAC;
};

object line_configuration {
	name olc105;
	spacing UNKNOWN;
	conductor_N O336_AAC;
	conductor_A O795_AAC;
	conductor_C O336_AAC;
	conductor_B O336_AAC;
};

object line_configuration {
	name olc104;
	spacing UNKNOWN;
	conductor_N O1_0_ACSR;
	conductor_A O1_0_ACSR;
	conductor_C O336_AAC;
	conductor_B O1_0_ACSR;
};

object line_configuration {
	name olc103;
	spacing UNKNOWN;
	conductor_N O336_AAC;
	conductor_A O4_ACSR;
	conductor_C O336_AAC;
	conductor_B O336_AAC;
};

object line_configuration {
	name olc102;
	spacing UNKNOWN;
	conductor_N O336_AAC;
	conductor_A O4_ACSR;
	conductor_C O1_0_ACSR;
	conductor_B O336_AAC;
};

object line_configuration {
	name olc101;
	spacing UNKNOWN;
	conductor_N O336_AAC;
	conductor_A O336_AAC;
	conductor_C O1_0_ACSR;
	conductor_B O4_ACSR;
};

object line_configuration {
	name olc100;
	spacing UNKNOWN;
	conductor_N O1_0_ACSR;
	conductor_A O795_AAC;
	conductor_C O1_0_ACSR;
	conductor_B O336_AAC;
};

object line_configuration {
	name olc107;
	spacing UNKNOWN;
	conductor_N O336_AAC;
	conductor_A O1_0_ACSR;
	conductor_C O795_AAC;
	conductor_B O336_AAC;
};

object line_configuration {
	name olc89;
	spacing UNKNOWN;
	conductor_N O4_ACSR;
	conductor_A O1_0_ACSR;
	conductor_C O4_ACSR;
	conductor_B O795_AAC;
};

object line_configuration {
	name olc88;
	spacing UNKNOWN;
	conductor_N O336_AAC;
	conductor_A O336_AAC;
	conductor_C O1_0_ACSR;
	conductor_B O336_AAC;
};

object line_configuration {
	name olc79;
	spacing UNKNOWN;
	conductor_N O336_AAC;
	conductor_A O1_0_ACSR;
	conductor_C O336_AAC;
	conductor_B O795_AAC;
};

object line_configuration {
	name olc85;
	spacing UNKNOWN;
	conductor_N O4_ACSR;
	conductor_A O4_ACSR;
	conductor_C O795_AAC;
	conductor_B O336_AAC;
};

object line_configuration {
	name olc84;
	spacing UNKNOWN;
	conductor_N O336_AAC;
	conductor_A O336_AAC;
	conductor_C O1_0_ACSR;
	conductor_B O1_0_ACSR;
};

object line_configuration {
	name olc87;
	spacing UNKNOWN;
	conductor_N O1_0_ACSR;
	conductor_A O4_ACSR;
	conductor_C O1_0_ACSR;
	conductor_B O336_AAC;
};

object line_configuration {
	name olc86;
	spacing UNKNOWN;
	conductor_N O336_AAC;
	conductor_A O4_ACSR;
	conductor_C O336_AAC;
	conductor_B O4_ACSR;
};

object line_configuration {
	name olc81;
	spacing UNKNOWN;
	conductor_N O336_AAC;
	conductor_A O336_AAC;
	conductor_C O336_AAC;
	conductor_B O4_ACSR;
};

object line_configuration {
	name olc80;
	spacing UNKNOWN;
	conductor_N O4_0_ACSR;
	conductor_A O4_0_ACSR;
	conductor_C O336_AAC;
	conductor_B O4_ACSR;
};

object line_configuration {
	name olc83;
	spacing UNKNOWN;
	conductor_N O4_ACSR;
	conductor_A O336_AAC;
	conductor_C O1_0_ACSR;
	conductor_B O4_ACSR;
};

object line_configuration {
	name olc82;
	spacing UNKNOWN;
	conductor_N O1_0_ACSR;
	conductor_A O795_AAC;
	conductor_C O4_ACSR;
	conductor_B O1_0_ACSR;
};

object line_configuration {
	name olc98;
	spacing UNKNOWN;
	conductor_N O1_0_ACSR;
	conductor_A O336_AAC;
	conductor_C O795_AAC;
	conductor_B O1_0_ACSR;
};

object line_configuration {
	name olc99;
	spacing UNKNOWN;
	conductor_N O1_0_ACSR;
	conductor_A O1_0_ACSR;
	conductor_C O1_0_ACSR;
	conductor_B O795_AAC;
};

object line_configuration {
	name olc96;
	spacing UNKNOWN;
	conductor_N O336_AAC;
	conductor_A O336_AAC;
	conductor_C O336_AAC;
	conductor_B O795_AAC;
};

object line_configuration {
	name olc97;
	spacing UNKNOWN;
	conductor_N UNKNOWN;
	conductor_A O4_ACSR;
	conductor_C O4_ACSR;
	conductor_B O4_ACSR;
};

object line_configuration {
	name olc94;
	spacing UNKNOWN;
	conductor_N O4_0_ACSR;
	conductor_A O4_0_ACSR;
	conductor_C O336_AAC;
	conductor_B O336_AAC;
};

object line_configuration {
	name olc95;
	spacing UNKNOWN;
	conductor_N UNKNOWN;
	conductor_A O795_AAC;
	conductor_C O4_ACSR;
	conductor_B O795_AAC;
};

object line_configuration {
	name olc92;
	spacing UNKNOWN;
	conductor_N O1_0_ACSR;
	conductor_A O1_0_ACSR;
	conductor_C O336_AAC;
	conductor_B O4_ACSR;
};

object line_configuration {
	name olc93;
	spacing UNKNOWN;
	conductor_N O336_AAC;
	conductor_A O1_0_ACSR;
	conductor_C O336_AAC;
	conductor_B O1_0_ACSR;
};

object line_configuration {
	name olc90;
	spacing UNKNOWN;
	conductor_N O336_AAC;
	conductor_A O795_AAC;
	conductor_C O4_ACSR;
	conductor_B O336_AAC;
};

object line_configuration {
	name olc91;
	spacing UNKNOWN;
	conductor_N O4_ACSR;
	conductor_A O795_AAC;
	conductor_C O4_ACSR;
	conductor_B O336_AAC;
};

object line_configuration {
	name olc16;
	spacing UNKNOWN;
	conductor_N O4_ACSR;
	conductor_A O4_ACSR;
	conductor_C O795_AAC;
	conductor_B O795_AAC;
};

object line_configuration {
	name olc17;
	spacing UNKNOWN;
	conductor_N O336_AAC;
	conductor_A O4_ACSR;
	conductor_C O336_AAC;
	conductor_B O795_AAC;
};

object line_configuration {
	name olc14;
	spacing UNKNOWN;
	conductor_N O1_0_ACSR;
	conductor_A O1_0_ACSR;
	conductor_C O4_ACSR;
	conductor_B O1_0_ACSR;
};

object line_configuration {
	name olc15;
	spacing UNKNOWN;
	conductor_N O336_AAC;
	conductor_A O795_AAC;
	conductor_C O336_AAC;
	conductor_B O795_AAC;
};

object line_configuration {
	name olc12;
	spacing UNKNOWN;
	conductor_N O1_0_ACSR;
	conductor_A O1_0_ACSR;
	conductor_C O1_0_ACSR;
	conductor_B O1_0_ACSR;
};

object line_configuration {
	name olc13;
	spacing UNKNOWN;
	conductor_N O4_ACSR;
	conductor_A O1_0_ACSR;
	conductor_C O4_ACSR;
	conductor_B O1_0_ACSR;
};

object line_configuration {
	name olc10;
	spacing UNKNOWN;
	conductor_N O1_0_ACSR;
	conductor_A O336_AAC;
	conductor_C O1_0_ACSR;
	conductor_B O1_0_ACSR;
};

object line_configuration {
	name olc11;
	spacing UNKNOWN;
	conductor_N O4_ACSR;
	conductor_A O4_ACSR;
	conductor_C O1_0_ACSR;
	conductor_B O1_0_ACSR;
};

object line_configuration {
	name olc18;
	spacing UNKNOWN;
	conductor_N O4_ACSR;
	conductor_A O4_ACSR;
	conductor_C O4_ACSR;
	conductor_B O795_AAC;
};

object line_configuration {
	name olc19;
	spacing UNKNOWN;
	conductor_N O4_ACSR;
	conductor_A O4_ACSR;
	conductor_C O4_ACSR;
	conductor_B O4_ACSR;
};

object line_configuration {
	name olc23;
	spacing UNKNOWN;
	conductor_N O4_ACSR;
	conductor_A O1_0_ACSR;
	conductor_C O4_ACSR;
	conductor_B O4_ACSR;
};

object line_configuration {
	name olc22;
	spacing UNKNOWN;
	conductor_N O4_ACSR;
	conductor_A O1_0_ACSR;
	conductor_C O336_AAC;
	conductor_B O4_ACSR;
};

object line_configuration {
	name olc21;
	spacing UNKNOWN;
	conductor_N O1_0_ACSR;
	conductor_A O1_0_ACSR;
	conductor_C O336_AAC;
	conductor_B O795_AAC;
};

object line_configuration {
	name olc20;
	spacing UNKNOWN;
	conductor_N O1_0_ACSR;
	conductor_A O336_AAC;
	conductor_C O4_ACSR;
	conductor_B O1_0_ACSR;
};

object line_configuration {
	name olc27;
	spacing UNKNOWN;
	conductor_N O1_0_ACSR;
	conductor_A O795_AAC;
	conductor_C O1_0_ACSR;
	conductor_B O795_AAC;
};

object line_configuration {
	name olc26;
	spacing UNKNOWN;
	conductor_N O336_AAC;
	conductor_A O336_AAC;
	conductor_C O795_AAC;
	conductor_B O4_ACSR;
};

object line_configuration {
	name olc25;
	spacing UNKNOWN;
	conductor_N O4_ACSR;
	conductor_A O795_AAC;
	conductor_C O795_AAC;
	conductor_B O4_ACSR;
};

object line_configuration {
	name olc24;
	spacing UNKNOWN;
	conductor_N O1_0_ACSR;
	conductor_A O1_0_ACSR;
	conductor_C O1_0_ACSR;
	conductor_B O4_ACSR;
};

object line_configuration {
	name olc29;
	spacing UNKNOWN;
	conductor_N O4_ACSR;
	conductor_A O336_AAC;
	conductor_C O4_ACSR;
	conductor_B O336_AAC;
};

object line_configuration {
	name olc28;
	spacing UNKNOWN;
	conductor_N O336_AAC;
	conductor_A O336_AAC;
	conductor_C O336_AAC;
	conductor_B O336_AAC;
};

object line_configuration {
	name olc4;
	spacing UNKNOWN;
	conductor_N O336_AAC;
	conductor_A O336_AAC;
	conductor_C O795_AAC;
	conductor_B O795_AAC;
};

object line_configuration {
	name olc5;
	spacing UNKNOWN;
	conductor_N O4_ACSR;
	conductor_A O795_AAC;
	conductor_C O4_ACSR;
	conductor_B O795_AAC;
};

object line_configuration {
	name olc6;
	spacing UNKNOWN;
	conductor_N O4_ACSR;
	conductor_A O795_AAC;
	conductor_C O4_ACSR;
	conductor_B O4_ACSR;
};

object line_configuration {
	name olc7;
	spacing UNKNOWN;
	conductor_N O336_AAC;
	conductor_A O336_AAC;
	conductor_C O4_ACSR;
	conductor_B O4_ACSR;
};

object line_configuration {
	conductor_N O336_AAC;
	spacing UNKNOWN;
	name olc0;
	conductor_B O336_AAC;
};

object line_configuration {
	name olc1;
	spacing UNKNOWN;
	conductor_N O336_AAC;
	conductor_A O336_AAC;
	conductor_B O336_AAC;
};

object line_configuration {
	name olc2;
	spacing UNKNOWN;
	conductor_N O336_AAC;
	conductor_A O795_AAC;
	conductor_C O795_AAC;
	conductor_B O795_AAC;
};

object line_configuration {
	name olc3;
	spacing UNKNOWN;
	conductor_N O1_0_ACSR;
	conductor_A O795_AAC;
	conductor_C O795_AAC;
	conductor_B O1_0_ACSR;
};

object line_configuration {
	name olc8;
	spacing UNKNOWN;
	conductor_N O4_ACSR;
	conductor_A O336_AAC;
	conductor_C O4_ACSR;
	conductor_B O4_ACSR;
};

object line_configuration {
	name olc9;
	spacing UNKNOWN;
	conductor_N O1_0_ACSR;
	conductor_A O336_AAC;
	conductor_C O1_0_ACSR;
	conductor_B O4_ACSR;
};

object line_configuration {
	name olc38;
	spacing UNKNOWN;
	conductor_N O4_ACSR;
	conductor_A O4_ACSR;
	conductor_C O336_AAC;
	conductor_B O336_AAC;
};

object line_configuration {
	name olc39;
	spacing UNKNOWN;
	conductor_N O1_0_ACSR;
	conductor_A O336_AAC;
	conductor_C O336_AAC;
	conductor_B O1_0_ACSR;
};

object line_configuration {
	name olc34;
	spacing UNKNOWN;
	conductor_N O4_ACSR;
	conductor_A O4_ACSR;
	conductor_C O1_0_ACSR;
	conductor_B O4_ACSR;
};

object line_configuration {
	name olc35;
	spacing UNKNOWN;
	conductor_N O4_ACSR;
	conductor_A O4_ACSR;
	conductor_C O795_AAC;
	conductor_B O4_ACSR;
};

object line_configuration {
	name olc36;
	spacing UNKNOWN;
	conductor_N O1_0_ACSR;
	conductor_A O4_ACSR;
	conductor_C O795_AAC;
	conductor_B O1_0_ACSR;
};

object line_configuration {
	name olc37;
	spacing UNKNOWN;
	conductor_N O4_ACSR;
	conductor_A O4_ACSR;
	conductor_C O795_AAC;
	conductor_B O1_0_ACSR;
};

object line_configuration {
	name olc30;
	spacing UNKNOWN;
	conductor_N O1_0_ACSR;
	conductor_A O1_0_ACSR;
	conductor_C O336_AAC;
	conductor_B O336_AAC;
};

object line_configuration {
	name olc31;
	spacing UNKNOWN;
	conductor_N UNKNOWN;
	conductor_A O1_0_ACSR;
	conductor_C O4_ACSR;
	conductor_B O336_AAC;
};

object line_configuration {
	name olc32;
	spacing UNKNOWN;
	conductor_N O1_0_ACSR;
	conductor_A O1_0_ACSR;
	conductor_C O795_AAC;
	conductor_B O795_AAC;
};

object line_configuration {
	name olc33;
	spacing UNKNOWN;
	conductor_N O4_ACSR;
	conductor_A O795_AAC;
	conductor_C O1_0_ACSR;
	conductor_B O4_ACSR;
};

object line_configuration {
	name VU1_0ALphABC;
	spacing VU1_0ALsps;
	conductor_A VU1_0ALcond;
	conductor_C VU1_0ALcond;
	conductor_B VU1_0ALcond;
};

object line_configuration {
	spacing VU1_0ALsps;
	conductor_A VU1_0ALcond;
	name VU1_0ALphA;
};

object line_configuration {
	spacing VU1_0ALsps;
	name VU1_0ALphB;
	conductor_B VU1_0ALcond;
};

object line_configuration {
	spacing VU1_0ALsps;
	name VU1_0ALphC;
	conductor_C VU1_0ALcond;
};

object transformer_configuration {
	name SPCTconfig_1060041827B;
	primary_voltage 4156.92193817;
	install_type POLETOP;
	secondary_voltage 120;
	connect_type SINGLE_PHASE_CENTER_TAPPED;
	impedance 0.00033+0.0022j;
	powerB_rating 5000;
	power_rating 5000;
};

object transformer_configuration {
	name SPCTconfig538107040A;
	primary_voltage 4156.92193817;
	install_type POLETOP;
	secondary_voltage 120;
	connect_type SINGLE_PHASE_CENTER_TAPPED;
	impedance 0.00033+0.0022j;
	powerA_rating 5000;
	power_rating 5000;
};

object transformer_configuration {
	name SPCTconfig538107040B;
	primary_voltage 4156.92193817;
	install_type POLETOP;
	secondary_voltage 120;
	connect_type SINGLE_PHASE_CENTER_TAPPED;
	impedance 0.00033+0.0022j;
	powerB_rating 5000;
	power_rating 5000;
};

object transformer_configuration {
	powerC_rating 5000;
	name SPCTconfig538107040C;
	primary_voltage 4156.92193817;
	install_type POLETOP;
	secondary_voltage 120;
	connect_type SINGLE_PHASE_CENTER_TAPPED;
	impedance 0.00033+0.0022j;
	power_rating 5000;
};

object transformer_configuration {
	name SPCTconfig397381995A;
	primary_voltage 4156.92193817;
	install_type POLETOP;
	secondary_voltage 120;
	connect_type SINGLE_PHASE_CENTER_TAPPED;
	impedance 0.00033+0.0022j;
	powerA_rating 5000;
	power_rating 5000;
};

object transformer_configuration {
	name SPCTconfig397381995B;
	primary_voltage 4156.92193817;
	install_type POLETOP;
	secondary_voltage 120;
	connect_type SINGLE_PHASE_CENTER_TAPPED;
	impedance 0.00033+0.0022j;
	powerB_rating 5000;
	power_rating 5000;
};

object transformer_configuration {
	powerC_rating 5000;
	name SPCTconfig397381995C;
	primary_voltage 4156.92193817;
	install_type POLETOP;
	secondary_voltage 120;
	connect_type SINGLE_PHASE_CENTER_TAPPED;
	impedance 0.00033+0.0022j;
	power_rating 5000;
};

object transformer_configuration {
	name SPCTconfig115601A;
	primary_voltage 4156.92193817;
	install_type POLETOP;
	secondary_voltage 120;
	connect_type SINGLE_PHASE_CENTER_TAPPED;
	impedance 0.00033+0.0022j;
	powerA_rating 5000;
	power_rating 5000;
};

object transformer_configuration {
	powerC_rating 5000;
	name SPCTconfig115601C;
	primary_voltage 4156.92193817;
	install_type POLETOP;
	secondary_voltage 120;
	connect_type SINGLE_PHASE_CENTER_TAPPED;
	impedance 0.00033+0.0022j;
	power_rating 5000;
};

object transformer_configuration {
	name SPCTconfig115601B;
	primary_voltage 4156.92193817;
	install_type POLETOP;
	secondary_voltage 120;
	connect_type SINGLE_PHASE_CENTER_TAPPED;
	impedance 0.00033+0.0022j;
	powerB_rating 5000;
	power_rating 5000;
};

object transformer_configuration {
	name SPCTconfig_357917964A;
	primary_voltage 4156.92193817;
	install_type POLETOP;
	secondary_voltage 120;
	connect_type SINGLE_PHASE_CENTER_TAPPED;
	impedance 0.00033+0.0022j;
	powerA_rating 5000;
	power_rating 5000;
};

object transformer_configuration {
	name SPCTconfig908306220A;
	primary_voltage 4156.92193817;
	install_type POLETOP;
	secondary_voltage 120;
	connect_type SINGLE_PHASE_CENTER_TAPPED;
	impedance 0.00033+0.0022j;
	powerA_rating 5000;
	power_rating 5000;
};

object transformer_configuration {
	powerC_rating 5000;
	name SPCTconfig_357917964C;
	primary_voltage 4156.92193817;
	install_type POLETOP;
	secondary_voltage 120;
	connect_type SINGLE_PHASE_CENTER_TAPPED;
	impedance 0.00033+0.0022j;
	power_rating 5000;
};

object transformer_configuration {
	name SPCTconfig_357917964B;
	primary_voltage 4156.92193817;
	install_type POLETOP;
	secondary_voltage 120;
	connect_type SINGLE_PHASE_CENTER_TAPPED;
	impedance 0.00033+0.0022j;
	powerB_rating 5000;
	power_rating 5000;
};

object transformer_configuration {
	powerC_rating 5000;
	name SPCTconfig_1060041827C;
	primary_voltage 4156.92193817;
	install_type POLETOP;
	secondary_voltage 120;
	connect_type SINGLE_PHASE_CENTER_TAPPED;
	impedance 0.00033+0.0022j;
	power_rating 5000;
};

object transformer_configuration {
	name SPCTconfig1885870658B;
	primary_voltage 4156.92193817;
	install_type POLETOP;
	secondary_voltage 120;
	connect_type SINGLE_PHASE_CENTER_TAPPED;
	impedance 0.00033+0.0022j;
	powerB_rating 5000;
	power_rating 5000;
};

object transformer_configuration {
	name SPCTconfig366661983A;
	primary_voltage 4156.92193817;
	install_type POLETOP;
	secondary_voltage 120;
	connect_type SINGLE_PHASE_CENTER_TAPPED;
	impedance 0.00033+0.0022j;
	powerA_rating 5000;
	power_rating 5000;
};

object transformer_configuration {
	name SPCTconfig366661983B;
	primary_voltage 4156.92193817;
	install_type POLETOP;
	secondary_voltage 120;
	connect_type SINGLE_PHASE_CENTER_TAPPED;
	impedance 0.00033+0.0022j;
	powerB_rating 5000;
	power_rating 5000;
};

object transformer_configuration {
	powerC_rating 5000;
	name SPCTconfig366661983C;
	primary_voltage 4156.92193817;
	install_type POLETOP;
	secondary_voltage 120;
	connect_type SINGLE_PHASE_CENTER_TAPPED;
	impedance 0.00033+0.0022j;
	power_rating 5000;
};

object transformer_configuration {
	powerC_rating 5000;
	name SPCTconfig1885870658C;
	primary_voltage 4156.92193817;
	install_type POLETOP;
	secondary_voltage 120;
	connect_type SINGLE_PHASE_CENTER_TAPPED;
	impedance 0.00033+0.0022j;
	power_rating 5000;
};

object transformer_configuration {
	powerC_rating 5;
	name SPCTconfig1326573195C;
	primary_voltage 4156.92193817;
	install_type POLETOP;
	secondary_voltage 120;
	connect_type SINGLE_PHASE_CENTER_TAPPED;
	impedance 0.00033+0.0022j;
	power_rating 5;
};

object transformer_configuration {
	name SPCTconfig1885870658A;
	primary_voltage 4156.92193817;
	install_type POLETOP;
	secondary_voltage 120;
	connect_type SINGLE_PHASE_CENTER_TAPPED;
	impedance 0.00033+0.0022j;
	powerA_rating 5000;
	power_rating 5000;
};

object transformer_configuration {
	name SPCTconfig106915A;
	primary_voltage 4156.92193817;
	install_type POLETOP;
	secondary_voltage 120;
	connect_type SINGLE_PHASE_CENTER_TAPPED;
	impedance 0.00033+0.0022j;
	powerA_rating 5000;
	power_rating 5000;
};

object transformer_configuration {
	name SPCTconfig2137789178A;
	primary_voltage 4156.92193817;
	install_type POLETOP;
	secondary_voltage 120;
	connect_type SINGLE_PHASE_CENTER_TAPPED;
	impedance 0.00033+0.0022j;
	powerA_rating 5000;
	power_rating 5000;
};

object transformer_configuration {
	powerC_rating 5000;
	name SPCTconfig100211C;
	primary_voltage 4156.92193817;
	install_type POLETOP;
	secondary_voltage 120;
	connect_type SINGLE_PHASE_CENTER_TAPPED;
	impedance 0.00033+0.0022j;
	power_rating 5000;
};

object transformer_configuration {
	name SPCTconfig106915B;
	primary_voltage 4156.92193817;
	install_type POLETOP;
	secondary_voltage 120;
	connect_type SINGLE_PHASE_CENTER_TAPPED;
	impedance 0.00033+0.0022j;
	powerB_rating 5000;
	power_rating 5000;
};

object transformer_configuration {
	name SPCTconfig_530541596A;
	primary_voltage 4156.92193817;
	install_type POLETOP;
	secondary_voltage 120;
	connect_type SINGLE_PHASE_CENTER_TAPPED;
	impedance 0.00033+0.0022j;
	powerA_rating 5000;
	power_rating 5000;
};

object transformer_configuration {
	powerC_rating 5000;
	name SPCTconfig106915C;
	primary_voltage 4156.92193817;
	install_type POLETOP;
	secondary_voltage 120;
	connect_type SINGLE_PHASE_CENTER_TAPPED;
	impedance 0.00033+0.0022j;
	power_rating 5000;
};

object transformer_configuration {
	name SPCTconfig1330021255B;
	primary_voltage 4156.92193817;
	install_type POLETOP;
	secondary_voltage 120;
	connect_type SINGLE_PHASE_CENTER_TAPPED;
	impedance 0.00033+0.0022j;
	powerB_rating 5000;
	power_rating 5000;
};

object transformer_configuration {
	powerC_rating 5000;
	name SPCTconfig115607C;
	primary_voltage 4156.92193817;
	install_type POLETOP;
	secondary_voltage 120;
	connect_type SINGLE_PHASE_CENTER_TAPPED;
	impedance 0.00033+0.0022j;
	power_rating 5000;
};

object transformer_configuration {
	name SPCTconfig115607B;
	primary_voltage 4156.92193817;
	install_type POLETOP;
	secondary_voltage 120;
	connect_type SINGLE_PHASE_CENTER_TAPPED;
	impedance 0.00033+0.0022j;
	powerB_rating 5000;
	power_rating 5000;
};

object transformer_configuration {
	name SPCTconfig115607A;
	primary_voltage 4156.92193817;
	install_type POLETOP;
	secondary_voltage 120;
	connect_type SINGLE_PHASE_CENTER_TAPPED;
	impedance 0.00033+0.0022j;
	powerA_rating 5000;
	power_rating 5000;
};

object transformer_configuration {
	powerC_rating 5000;
	name SPCTconfig_530541596C;
	primary_voltage 4156.92193817;
	install_type POLETOP;
	secondary_voltage 120;
	connect_type SINGLE_PHASE_CENTER_TAPPED;
	impedance 0.00033+0.0022j;
	power_rating 5000;
};

object transformer_configuration {
	name SPCTconfig1330021255A;
	primary_voltage 4156.92193817;
	install_type POLETOP;
	secondary_voltage 120;
	connect_type SINGLE_PHASE_CENTER_TAPPED;
	impedance 0.00033+0.0022j;
	powerA_rating 5000;
	power_rating 5000;
};

object transformer_configuration {
	name SPCTconfig100211A;
	primary_voltage 4156.92193817;
	install_type POLETOP;
	secondary_voltage 120;
	connect_type SINGLE_PHASE_CENTER_TAPPED;
	impedance 0.00033+0.0022j;
	powerA_rating 5000;
	power_rating 5000;
};

object transformer_configuration {
	powerC_rating 5000;
	name SPCTconfig1330021255C;
	primary_voltage 4156.92193817;
	install_type POLETOP;
	secondary_voltage 120;
	connect_type SINGLE_PHASE_CENTER_TAPPED;
	impedance 0.00033+0.0022j;
	power_rating 5000;
};

object transformer_configuration {
	name SPCTconfig100208A;
	primary_voltage 4156.92193817;
	install_type POLETOP;
	secondary_voltage 120;
	connect_type SINGLE_PHASE_CENTER_TAPPED;
	impedance 0.00033+0.0022j;
	powerA_rating 5000;
	power_rating 5000;
};

object transformer_configuration {
	name SPCTconfig100208B;
	primary_voltage 4156.92193817;
	install_type POLETOP;
	secondary_voltage 120;
	connect_type SINGLE_PHASE_CENTER_TAPPED;
	impedance 0.00033+0.0022j;
	powerB_rating 5000;
	power_rating 5000;
};

object transformer_configuration {
	name SPCTconfig1870683921B;
	primary_voltage 4156.92193817;
	install_type POLETOP;
	secondary_voltage 120;
	connect_type SINGLE_PHASE_CENTER_TAPPED;
	impedance 0.00033+0.0022j;
	powerB_rating 5000;
	power_rating 5000;
};

object transformer_configuration {
	name SPCTconfig1269672323B;
	primary_voltage 4156.92193817;
	install_type POLETOP;
	secondary_voltage 120;
	connect_type SINGLE_PHASE_CENTER_TAPPED;
	impedance 0.00033+0.0022j;
	powerB_rating 5000;
	power_rating 5000;
};

object transformer_configuration {
	name SPCTconfig1870683921A;
	primary_voltage 4156.92193817;
	install_type POLETOP;
	secondary_voltage 120;
	connect_type SINGLE_PHASE_CENTER_TAPPED;
	impedance 0.00033+0.0022j;
	powerA_rating 5000;
	power_rating 5000;
};

object transformer_configuration {
	name SPCTconfig_569511642A;
	primary_voltage 4156.92193817;
	install_type POLETOP;
	secondary_voltage 120;
	connect_type SINGLE_PHASE_CENTER_TAPPED;
	impedance 0.00033+0.0022j;
	powerA_rating 5000;
	power_rating 5000;
};

object transformer_configuration {
	name SPCTconfig908306220B;
	primary_voltage 4156.92193817;
	install_type POLETOP;
	secondary_voltage 120;
	connect_type SINGLE_PHASE_CENTER_TAPPED;
	impedance 0.00033+0.0022j;
	powerB_rating 5000;
	power_rating 5000;
};

object transformer_configuration {
	powerC_rating 5000;
	name SPCTconfig1870683921C;
	primary_voltage 4156.92193817;
	install_type POLETOP;
	secondary_voltage 120;
	connect_type SINGLE_PHASE_CENTER_TAPPED;
	impedance 0.00033+0.0022j;
	power_rating 5000;
};

object transformer_configuration {
	powerC_rating 5000;
	name SPCTconfig1269672323C;
	primary_voltage 4156.92193817;
	install_type POLETOP;
	secondary_voltage 120;
	connect_type SINGLE_PHASE_CENTER_TAPPED;
	impedance 0.00033+0.0022j;
	power_rating 5000;
};

object transformer_configuration {
	name SPCTconfig106920A;
	primary_voltage 4156.92193817;
	install_type POLETOP;
	secondary_voltage 120;
	connect_type SINGLE_PHASE_CENTER_TAPPED;
	impedance 0.00033+0.0022j;
	powerA_rating 5000;
	power_rating 5000;
};

object transformer_configuration {
	name SPCTconfig106920B;
	primary_voltage 4156.92193817;
	install_type POLETOP;
	secondary_voltage 120;
	connect_type SINGLE_PHASE_CENTER_TAPPED;
	impedance 0.00033+0.0022j;
	powerB_rating 5000;
	power_rating 5000;
};

object transformer_configuration {
	name SPCTconfig141032265B;
	primary_voltage 4156.92193817;
	install_type POLETOP;
	secondary_voltage 120;
	connect_type SINGLE_PHASE_CENTER_TAPPED;
	impedance 0.00033+0.0022j;
	powerB_rating 5000;
	power_rating 5000;
};

object transformer_configuration {
	powerC_rating 5000;
	name SPCTconfig141032265C;
	primary_voltage 4156.92193817;
	install_type POLETOP;
	secondary_voltage 120;
	connect_type SINGLE_PHASE_CENTER_TAPPED;
	impedance 0.00033+0.0022j;
	power_rating 5000;
};

object transformer_configuration {
	name SPCTconfig_530541596B;
	primary_voltage 4156.92193817;
	install_type POLETOP;
	secondary_voltage 120;
	connect_type SINGLE_PHASE_CENTER_TAPPED;
	impedance 0.00033+0.0022j;
	powerB_rating 5000;
	power_rating 5000;
};

object transformer_configuration {
	name SPCTconfig141032265A;
	primary_voltage 4156.92193817;
	install_type POLETOP;
	secondary_voltage 120;
	connect_type SINGLE_PHASE_CENTER_TAPPED;
	impedance 0.00033+0.0022j;
	powerA_rating 5000;
	power_rating 5000;
};

object transformer_configuration {
	name SPCTconfig1269672323A;
	primary_voltage 4156.92193817;
	install_type POLETOP;
	secondary_voltage 120;
	connect_type SINGLE_PHASE_CENTER_TAPPED;
	impedance 0.00033+0.0022j;
	powerA_rating 5000;
	power_rating 5000;
};

object transformer_configuration {
	powerC_rating 5000;
	name SPCTconfig908306220C;
	primary_voltage 4156.92193817;
	install_type POLETOP;
	secondary_voltage 120;
	connect_type SINGLE_PHASE_CENTER_TAPPED;
	impedance 0.00033+0.0022j;
	power_rating 5000;
};

object transformer_configuration {
	name SPCTconfig_53475935A;
	primary_voltage 4156.92193817;
	install_type POLETOP;
	secondary_voltage 120;
	connect_type SINGLE_PHASE_CENTER_TAPPED;
	impedance 0.00033+0.0022j;
	powerA_rating 5000;
	power_rating 5000;
};

object transformer_configuration {
	name SPCTconfig_53475935B;
	primary_voltage 4156.92193817;
	install_type POLETOP;
	secondary_voltage 120;
	connect_type SINGLE_PHASE_CENTER_TAPPED;
	impedance 0.00033+0.0022j;
	powerB_rating 5000;
	power_rating 5000;
};

object transformer_configuration {
	powerC_rating 5000;
	name SPCTconfig_53475935C;
	primary_voltage 4156.92193817;
	install_type POLETOP;
	secondary_voltage 120;
	connect_type SINGLE_PHASE_CENTER_TAPPED;
	impedance 0.00033+0.0022j;
	power_rating 5000;
};

object transformer_configuration {
	name SPCTconfig100211B;
	primary_voltage 4156.92193817;
	install_type POLETOP;
	secondary_voltage 120;
	connect_type SINGLE_PHASE_CENTER_TAPPED;
	impedance 0.00033+0.0022j;
	powerB_rating 5000;
	power_rating 5000;
};

object transformer_configuration {
	name SPCTconfig1326573195B;
	primary_voltage 4156.92193817;
	install_type POLETOP;
	secondary_voltage 120;
	connect_type SINGLE_PHASE_CENTER_TAPPED;
	impedance 0.00033+0.0022j;
	powerB_rating 5000;
	power_rating 5000;
};

object transformer_configuration {
	name SPCTconfig115602A;
	primary_voltage 4156.92193817;
	install_type POLETOP;
	secondary_voltage 120;
	connect_type SINGLE_PHASE_CENTER_TAPPED;
	impedance 0.00033+0.0022j;
	powerA_rating 5000;
	power_rating 5000;
};

object transformer_configuration {
	name SPCTconfig115602B;
	primary_voltage 4156.92193817;
	install_type POLETOP;
	secondary_voltage 120;
	connect_type SINGLE_PHASE_CENTER_TAPPED;
	impedance 0.00033+0.0022j;
	powerB_rating 5000;
	power_rating 5000;
};

object transformer_configuration {
	powerC_rating 5000;
	name SPCTconfig115602C;
	primary_voltage 4156.92193817;
	install_type POLETOP;
	secondary_voltage 120;
	connect_type SINGLE_PHASE_CENTER_TAPPED;
	impedance 0.00033+0.0022j;
	power_rating 5000;
};

object transformer_configuration {
	name SPCTconfig_219096185A;
	primary_voltage 4156.92193817;
	install_type POLETOP;
	secondary_voltage 120;
	connect_type SINGLE_PHASE_CENTER_TAPPED;
	impedance 0.00033+0.0022j;
	powerA_rating 5000;
	power_rating 5000;
};

object transformer_configuration {
	name SPCTconfig_1060041827A;
	primary_voltage 4156.92193817;
	install_type POLETOP;
	secondary_voltage 120;
	connect_type SINGLE_PHASE_CENTER_TAPPED;
	impedance 0.00033+0.0022j;
	powerA_rating 5000;
	power_rating 5000;
};

object transformer_configuration {
	powerC_rating 5000;
	name SPCTconfig_219096185C;
	primary_voltage 4156.92193817;
	install_type POLETOP;
	secondary_voltage 120;
	connect_type SINGLE_PHASE_CENTER_TAPPED;
	impedance 0.00033+0.0022j;
	power_rating 5000;
};

object transformer_configuration {
	name SPCTconfig_219096185B;
	primary_voltage 4156.92193817;
	install_type POLETOP;
	secondary_voltage 120;
	connect_type SINGLE_PHASE_CENTER_TAPPED;
	impedance 0.00033+0.0022j;
	powerB_rating 5000;
	power_rating 5000;
};

object transformer_configuration {
	name SPCTconfig115606A;
	primary_voltage 4156.92193817;
	install_type POLETOP;
	secondary_voltage 120;
	connect_type SINGLE_PHASE_CENTER_TAPPED;
	impedance 0.00033+0.0022j;
	powerA_rating 5000;
	power_rating 5000;
};

object transformer_configuration {
	name SPCTconfig115606B;
	primary_voltage 4156.92193817;
	install_type POLETOP;
	secondary_voltage 120;
	connect_type SINGLE_PHASE_CENTER_TAPPED;
	impedance 0.00033+0.0022j;
	powerB_rating 5000;
	power_rating 5000;
};

object transformer_configuration {
	powerC_rating 5000;
	name SPCTconfig115606C;
	primary_voltage 4156.92193817;
	install_type POLETOP;
	secondary_voltage 120;
	connect_type SINGLE_PHASE_CENTER_TAPPED;
	impedance 0.00033+0.0022j;
	power_rating 5000;
};

object meter {
	phases ABCN;
	name nSOURCE_CV160_0905;
	bustype SWING;
	longitude 539.946276911;
	nominal_voltage 4156.92193817;
	latitude 1194.54537836;
};

object node {
	phases BN;
	name n950704645_L;
	longitude 375.976217722;
	nominal_voltage 4156.92193817;
	latitude 886.545192913;
};

object node {
	phases AN;
	name n_4969426_XFO;
	longitude 666.067751718;
	nominal_voltage 4156.92193817;
	latitude 582.020179724;
};

object node {
	phases CN;
	name n107303_XFO;
	longitude 281.979095596;
	nominal_voltage 4156.92193817;
	latitude 707.020406321;
};

object node {
	phases BN;
	name n107019_L;
	longitude 613.717893068;
	nominal_voltage 4156.92193817;
	latitude 616.984271902;
};

object node {
	phases AN;
	name n2137789178_XFO;
	longitude 592.311920695;
	nominal_voltage 4156.92193817;
	latitude 1153.37531936;
};

object node {
	phases ABCN;
	name n3035161_5_10056108;
	longitude 468.008862121;
	nominal_voltage 4156.92193817;
	latitude 717.750881052;
};

object node {
	phases ABCN;
	name n3045121_10054118;
	longitude 545.191142538;
	nominal_voltage 4156.92193817;
	latitude 1075.18711988;
};

object node {
	phases AN;
	name nnodeFUS__27586542;
	longitude 700.520433038;
	nominal_voltage 4156.92193817;
	latitude 554.75611339;
};

object node {
	phases BN;
	name n_1911529513_L;
	longitude 586.959102966;
	nominal_voltage 4156.92193817;
	latitude 1019.01743202;
};

object node {
	phases AN;
	name n_764613495_L;
	longitude 666.02145065;
	nominal_voltage 4156.92193817;
	latitude 569.754023718;
};

object node {
	phases AN;
	name n_1064714622_XFO;
	longitude 417.086779433;
	nominal_voltage 4156.92193817;
	latitude 858.319029079;
};

object node {
	phases BN;
	name nnodeFUS_864715475;
	longitude 450.187549814;
	nominal_voltage 4156.92193817;
	latitude 760.318604171;
};

object node {
	phases BN;
	name n107273_L;
	longitude 277.901332707;
	nominal_voltage 4156.92193817;
	latitude 926.644973221;
};

object node {
	phases CN;
	name n3034961_646_10060114_721;
	longitude 312.60792555;
	nominal_voltage 4156.92193817;
	latitude 710.578325996;
};

object node {
	phases CN;
	name n3034539_10061406;
	longitude 262.525584909;
	nominal_voltage 4156.92193817;
	latitude 695.409994595;
};

object node {
	phases BN;
	name n3046188_435_10052990_412;
	longitude 588.924717017;
	nominal_voltage 4156.92193817;
	latitude 1113.49626708;
};

object node {
	phases CN;
	name n107150_L;
	longitude 368.87423461;
	nominal_voltage 4156.92193817;
	latitude 736.493897843;
};

object node {
	phases AN;
	name n106973_XFO;
	longitude 493.840179948;
	nominal_voltage 4156.92193817;
	latitude 588.228712968;
};

object node {
	phases BN;
	name n1779831686_XFO;
	longitude 650.726606132;
	nominal_voltage 4156.92193817;
	latitude 721.372415477;
};

object node {
	phases CN;
	name n_657041159_L;
	longitude 311.65522805;
	nominal_voltage 4156.92193817;
	latitude 702.190626117;
};

object node {
	phases CN;
	name n107151_XFO;
	longitude 370.656398287;
	nominal_voltage 4156.92193817;
	latitude 653.814589484;
};

object node {
	phases AN;
	name n107112_L;
	longitude 447.615387536;
	nominal_voltage 4156.92193817;
	latitude 762.599367367;
};

object node {
	phases AN;
	name n107185_L;
	longitude 399.497597964;
	nominal_voltage 4156.92193817;
	latitude 614.255774523;
};

object node {
	phases AN;
	name n112165_XFO;
	longitude 673.781675742;
	nominal_voltage 4156.92193817;
	latitude 518.929219783;
};

object node {
	phases BN;
	name n107129_XFO;
	longitude 321.08246268;
	nominal_voltage 4156.92193817;
	latitude 637.983828081;
};

object node {
	phases AN;
	name n3035167_698_10057211_954;
	longitude 425.191933882;
	nominal_voltage 4156.92193817;
	latitude 717.973320914;
};

object node {
	phases BN;
	name n3032293_501_10054564;
	longitude 527.893003309;
	nominal_voltage 4156.92193817;
	latitude 614.821338854;
};

object node {
	phases BN;
	name n_1911529513_XFO;
	longitude 586.635978069;
	nominal_voltage 4156.92193817;
	latitude 1019.21593286;
};

object node {
	phases AN;
	name n3031364_499_10054797;
	longitude 518.856083039;
	nominal_voltage 4156.92193817;
	latitude 581.480410018;
};

object node {
	phases AN;
	name n116579_L;
	longitude 284.338074918;
	nominal_voltage 4156.92193817;
	latitude 1009.44653777;
};

object node {
	phases AN;
	name n3031666_501_10054444;
	longitude 532.547211174;
	nominal_voltage 4156.92193817;
	latitude 592.318952013;
};

object node {
	phases ABCN;
	name n3031975_901_10056405_616;
	longitude 456.465806056;
	nominal_voltage 4156.92193817;
	latitude 603.423000639;
};

object node {
	phases AN;
	name n106977_XFO;
	longitude 504.257004316;
	nominal_voltage 4156.92193817;
	latitude 593.194042167;
};

object node {
	phases AN;
	name n107032_L;
	longitude 486.24410035;
	nominal_voltage 4156.92193817;
	latitude 608.405169268;
};

object node {
	phases BN;
	name n3032123_25_10054064;
	longitude 547.285536077;
	nominal_voltage 4156.92193817;
	latitude 608.711205103;
};

object node {
	phases BN;
	name n_305846887_XFO;
	longitude 193.153693451;
	nominal_voltage 4156.92193817;
	latitude 663.509769305;
};

object node {
	phases BN;
	name n107079_L;
	longitude 343.752448794;
	nominal_voltage 4156.92193817;
	latitude 919.451021303;
};

object node {
	phases CN;
	name n3034747_824_10060137_194;
	longitude 311.736308772;
	nominal_voltage 4156.92193817;
	latitude 702.904473749;
};

object node {
	phases AN;
	name n3036882_211_10058123_817;
	longitude 389.825267667;
	nominal_voltage 4156.92193817;
	latitude 779.505433785;
};

object node {
	phases CN;
	name n_1445409102_L;
	longitude 481.874614467;
	nominal_voltage 4156.92193817;
	latitude 688.047229304;
};

object node {
	phases CN;
	name n116552_XFO;
	longitude 328.067854704;
	nominal_voltage 4156.92193817;
	latitude 679.146415429;
};

object node {
	phases ABCN;
	name n3033084_10057598;
	longitude 410.219114472;
	nominal_voltage 4156.92193817;
	latitude 643.191537093;
};

object node {
	phases CN;
	name n107116_XFO;
	longitude 457.265706494;
	nominal_voltage 4156.92193817;
	latitude 931.367708531;
};

object node {
	phases CN;
	name n3037842_10056773;
	longitude 442.216793539;
	nominal_voltage 4156.92193817;
	latitude 813.951276471;
};

object node {
	phases CN;
	name n107131_XFO;
	longitude 324.5905788;
	nominal_voltage 4156.92193817;
	latitude 714.142756721;
};

object node {
	phases CN;
	name n1614234472_L;
	longitude 345.21055778;
	nominal_voltage 4156.92193817;
	latitude 688.307102945;
};

object node {
	phases BN;
	name n3035934_501_10049721;
	longitude 715.729075702;
	nominal_voltage 4156.92193817;
	latitude 745.493094019;
};

object node {
	phases CN;
	name n_887029546_XFO;
	longitude 435.949433506;
	nominal_voltage 4156.92193817;
	latitude 694.819094478;
};

object node {
	phases AN;
	name n106963_XFO;
	longitude 473.61049039;
	nominal_voltage 4156.92193817;
	latitude 678.788286497;
};

object node {
	phases ABCN;
	name nnodeFUS_1390651429;
	longitude 486.765898796;
	nominal_voltage 4156.92193817;
	latitude 693.835135388;
};

object node {
	phases BN;
	name n3037627_04_10054292_829;
	longitude 538.410388316;
	nominal_voltage 4156.92193817;
	latitude 806.236582571;
};

object node {
	phases AN;
	name n3033089_499_10057885_001;
	longitude 399.087761878;
	nominal_voltage 4156.92193817;
	latitude 643.388890562;
};

object node {
	phases CN;
	name n3037351_75_10056446_001;
	longitude 454.899471185;
	nominal_voltage 4156.92193817;
	latitude 796.356706855;
};

object node {
	phases BN;
	name n107076_L;
	longitude 325.703298322;
	nominal_voltage 4156.92193817;
	latitude 934.830836632;
};

object node {
	phases BN;
	name n107284_L;
	longitude 222.370037485;
	nominal_voltage 4156.92193817;
	latitude 702.606086106;
};

object node {
	phases CN;
	name n107150_XFO;
	longitude 368.87423461;
	nominal_voltage 4156.92193817;
	latitude 736.852787585;
};

object node {
	phases BN;
	name n106833_XFO;
	longitude 633.207695368;
	nominal_voltage 4156.92193817;
	latitude 565.463581403;
};

object node {
	phases ABCN;
	name n3047792_501_10053610;
	longitude 564.893955831;
	nominal_voltage 4156.92193817;
	latitude 1171.06455042;
};

object node {
	phases BN;
	name n113139_XFO;
	longitude 666.935393841;
	nominal_voltage 4156.92193817;
	latitude 752.752738408;
};

object node {
	phases BN;
	name n107280_L;
	longitude 309.600585712;
	nominal_voltage 4156.92193817;
	latitude 915.594085066;
};

object node {
	phases AN;
	name n_1578736897_XFO;
	longitude 400.809935647;
	nominal_voltage 4156.92193817;
	latitude 736.980825735;
};

object node {
	phases BN;
	name n3033486_75_10061870;
	longitude 244.5293145;
	nominal_voltage 4156.92193817;
	latitude 657.645821463;
};

object node {
	phases CN;
	name n3034584_261_10059244_265;
	longitude 346.368618556;
	nominal_voltage 4156.92193817;
	latitude 697.034365457;
};

object node {
	phases ABCN;
	name n3048442_10053536;
	longitude 567.764050681;
	nominal_voltage 4156.92193817;
	latitude 1194.37440329;
};

object node {
	phases AN;
	name n3038698_49_10058082_971;
	longitude 391.409482453;
	nominal_voltage 4156.92193817;
	latitude 844.689824007;
};

object node {
	phases AN;
	name n3036911_75_10058391_001;
	longitude 379.462518716;
	nominal_voltage 4156.92193817;
	latitude 780.565558195;
};

object node {
	phases AN;
	name n107069_XFO;
	longitude 632.174193682;
	nominal_voltage 4156.92193817;
	latitude 517.77424365;
};

object node {
	phases CN;
	name n3034700_5_10059492_999;
	longitude 336.721454065;
	nominal_voltage 4156.92193817;
	latitude 701.206063933;
};

object node {
	phases BN;
	name n3046294_104_10053117_881;
	longitude 583.980823498;
	nominal_voltage 4156.92193817;
	latitude 1117.2886191;
};

object node {
	phases CN;
	name n3034976_25_10060553;
	longitude 295.609245812;
	nominal_voltage 4156.92193817;
	latitude 711.102448576;
};

object node {
	phases CN;
	name n3034533_092_10060607_294;
	longitude 293.503449463;
	nominal_voltage 4156.92193817;
	latitude 695.197962535;
};

object node {
	phases CN;
	name n3033900_75_10060163;
	longitude 310.735421371;
	nominal_voltage 4156.92193817;
	latitude 672.503856794;
};

object node {
	phases ABCN;
	name n3038401_10057414_001;
	longitude 417.355527745;
	nominal_voltage 4156.92193817;
	latitude 834.013213064;
};

object node {
	phases BN;
	name n3033150_75_10051906;
	longitude 630.983707505;
	nominal_voltage 4156.92193817;
	latitude 645.587126122;
};

object node {
	phases BN;
	name n107074_L;
	longitude 316.888880721;
	nominal_voltage 4156.92193817;
	latitude 928.210000158;
};

object node {
	phases BN;
	name n116572_L;
	longitude 316.708683677;
	nominal_voltage 4156.92193817;
	latitude 921.160305227;
};

object node {
	phases CN;
	name n1608175448_XFO;
	longitude 587.076291692;
	nominal_voltage 4156.92193817;
	latitude 1185.27658091;
};

object node {
	phases BN;
	name n3042978_205_10053679_095;
	longitude 562.214101728;
	nominal_voltage 4156.92193817;
	latitude 998.284405346;
};

object node {
	phases BN;
	name n107272_L;
	longitude 277.012877316;
	nominal_voltage 4156.92193817;
	latitude 868.308171001;
};

object node {
	phases AN;
	name n106911_L;
	longitude 551.466147264;
	nominal_voltage 4156.92193817;
	latitude 1110.51150384;
};

object node {
	phases CN;
	name n106922_XFO;
	longitude 606.133416488;
	nominal_voltage 4156.92193817;
	latitude 1053.20886922;
};

object node {
	phases AN;
	name n3036744_75_10058769;
	longitude 364.801802729;
	nominal_voltage 4156.92193817;
	latitude 774.572099499;
};

object node {
	phases BN;
	name n_1589429015_L;
	longitude 293.040974442;
	nominal_voltage 4156.92193817;
	latitude 857.069786571;
};

object node {
	phases BN;
	name n3031310_10051977;
	longitude 628.229967852;
	nominal_voltage 4156.92193817;
	latitude 579.524496812;
};

object node {
	phases BN;
	name n107270_L;
	longitude 267.322224372;
	nominal_voltage 4156.92193817;
	latitude 873.099781056;
};

object node {
	phases AN;
	name n106913_L;
	longitude 556.107261212;
	nominal_voltage 4156.92193817;
	latitude 1138.99701356;
};

object node {
	phases BN;
	name n3041051_75_10055284;
	longitude 499.967756123;
	nominal_voltage 4156.92193817;
	latitude 929.1459115;
};

object node {
	phases AN;
	name n3035587_75_10057085;
	longitude 430.115853092;
	nominal_voltage 4156.92193817;
	latitude 733.048556317;
};

object node {
	phases BN;
	name n2092433377_L;
	longitude 572.308836838;
	nominal_voltage 4156.92193817;
	latitude 883.226055862;
};

object node {
	phases BN;
	name n3040384_074_10058884_127;
	longitude 360.336594489;
	nominal_voltage 4156.92193817;
	latitude 905.183704743;
};

object node {
	phases AN;
	name n106877_XFO;
	longitude 716.994650115;
	nominal_voltage 4156.92193817;
	latitude 622.572009513;
};

object node {
	phases AN;
	name n3035868_917_10057018_055;
	longitude 432.712319304;
	nominal_voltage 4156.92193817;
	latitude 743.139351533;
};

object node {
	phases BN;
	name n107274_L;
	longitude 281.672275281;
	nominal_voltage 4156.92193817;
	latitude 930.038298165;
};

object node {
	phases CN;
	name n_1643506320_XFO;
	longitude 493.156490387;
	nominal_voltage 4156.92193817;
	latitude 805.148341195;
};

object node {
	phases CN;
	name n_2026911427_L;
	longitude 344.963932934;
	nominal_voltage 4156.92193817;
	latitude 733.01299928;
};

object node {
	phases ABCN;
	name n3032628_5_10058838;
	longitude 362.125633207;
	nominal_voltage 4156.92193817;
	latitude 626.844109332;
};

object node {
	phases AN;
	name n3030877_499_10054026;
	longitude 548.759368568;
	nominal_voltage 4156.92193817;
	latitude 564.002479569;
};

object node {
	phases BN;
	name n3038940_149_10053497_593;
	longitude 569.253668693;
	nominal_voltage 4156.92193817;
	latitude 853.36271763;
};

object node {
	phases BN;
	name n106868_XFO;
	longitude 699.212957189;
	nominal_voltage 4156.92193817;
	latitude 685.352622205;
};

object node {
	phases CN;
	name n3044413_10052687_999;
	longitude 600.653825041;
	nominal_voltage 4156.92193817;
	latitude 1049.77772612;
};

object node {
	phases AN;
	name n3041830_055_10056595_337;
	longitude 449.107464638;
	nominal_voltage 4156.92193817;
	latitude 957.078479586;
};

object node {
	phases BN;
	name n107031_L;
	longitude 475.484702585;
	nominal_voltage 4156.92193817;
	latitude 590.396491853;
};

object node {
	phases BN;
	name n106873_XFO;
	longitude 710.568281165;
	nominal_voltage 4156.92193817;
	latitude 668.281945516;
};

object node {
	phases BN;
	name n_1419850711_XFO;
	longitude 589.267169132;
	nominal_voltage 4156.92193817;
	latitude 1113.32777908;
};

object node {
	phases AN;
	name n3034497_811_10055873_417;
	longitude 477.10717915;
	nominal_voltage 4156.92193817;
	latitude 693.931763635;
};

object node {
	phases ABCN;
	name n3033935_25_10055612;
	longitude 487.246254627;
	nominal_voltage 4156.92193817;
	latitude 673.742026405;
};

object node {
	phases AN;
	name n3030660_501_10050503;
	longitude 685.399154453;
	nominal_voltage 4156.92193817;
	latitude 556.21464394;
};

object node {
	phases BN;
	name n3040035_736_10060321_326;
	longitude 304.594737085;
	nominal_voltage 4156.92193817;
	latitude 892.682211238;
};

object node {
	phases ABCN;
	name n3036404_25_10056605_999;
	longitude 448.693938269;
	nominal_voltage 4156.92193817;
	latitude 762.351903774;
};

object node {
	phases ABCN;
	name n3032232_75_10055481;
	longitude 492.327098212;
	nominal_voltage 4156.92193817;
	latitude 612.641047781;
};

object node {
	phases AN;
	name n3032042_5_10051100;
	longitude 662.244470327;
	nominal_voltage 4156.92193817;
	latitude 605.813170434;
};

object node {
	phases ABCN;
	name nFUS_102260;
	longitude 586.866044523;
	nominal_voltage 4156.92193817;
	latitude 1137.47760266;
};

object node {
	phases AN;
	name n3030260_75_10052634;
	longitude 602.748179795;
	nominal_voltage 4156.92193817;
	latitude 541.867990603;
};

object node {
	phases BN;
	name nnodeREC_102051;
	longitude 353.0357434;
	nominal_voltage 4156.92193817;
	latitude 651.552939865;
};

object node {
	phases AN;
	name n107144_XFO;
	longitude 346.965130615;
	nominal_voltage 4156.92193817;
	latitude 629.94896613;
};

object node {
	phases CN;
	name nnodeREC_102052;
	longitude 364.278295343;
	nominal_voltage 4156.92193817;
	latitude 646.192189562;
};

object node {
	phases ABCN;
	name n3033050_5_10056029;
	longitude 471.072882298;
	nominal_voltage 4156.92193817;
	latitude 641.989256456;
};

object node {
	phases BN;
	name n_495138220_L;
	longitude 738.453082431;
	nominal_voltage 4156.92193817;
	latitude 643.453182537;
};

object node {
	phases BN;
	name n3033714_75_10049389;
	longitude 728.60571746;
	nominal_voltage 4156.92193817;
	latitude 665.828507587;
};

object node {
	phases CN;
	name n116561_XFO;
	longitude 362.371973952;
	nominal_voltage 4156.92193817;
	latitude 741.913318748;
};

object node {
	phases AN;
	name n106860_XFO;
	longitude 680.125622395;
	nominal_voltage 4156.92193817;
	latitude 560.367894872;
};

object node {
	phases BN;
	name n_758122455_XFO;
	longitude 331.540501223;
	nominal_voltage 4156.92193817;
	latitude 926.318793228;
};

object node {
	phases BN;
	name n3032975_10052389;
	longitude 612.250520851;
	nominal_voltage 4156.92193817;
	latitude 639.279638902;
};

object node {
	phases AN;
	name n106851_L;
	longitude 662.292202565;
	nominal_voltage 4156.92193817;
	latitude 605.096751178;
};

object node {
	phases AN;
	name n3031115_469_10055054_917;
	longitude 508.852755291;
	nominal_voltage 4156.92193817;
	latitude 572.542978766;
};

object node {
	phases AN;
	name n3038982_10057769;
	longitude 403.586868265;
	nominal_voltage 4156.92193817;
	latitude 854.864707091;
};

object node {
	phases CN;
	name n3035038_25_10060179;
	longitude 310.114860322;
	nominal_voltage 4156.92193817;
	latitude 713.327564978;
};

object node {
	phases BN;
	name n1616793703_XFO;
	longitude 360.106431692;
	nominal_voltage 4156.92193817;
	latitude 904.894839952;
};

object node {
	phases ABCN;
	name nnodeFUS_102260;
	longitude 596.511330325;
	nominal_voltage 4156.92193817;
	latitude 1145.07580029;
};

object node {
	phases CN;
	name n3034781_749_10061784;
	longitude 247.864830136;
	nominal_voltage 4156.92193817;
	latitude 704.1220072;
};

object node {
	phases BN;
	name n106853_L;
	longitude 667.470489632;
	nominal_voltage 4156.92193817;
	latitude 727.090466456;
};

object node {
	phases BN;
	name nnodeREC_102127;
	longitude 420.767082922;
	nominal_voltage 4156.92193817;
	latitude 888.151805204;
};

object node {
	phases CN;
	name n106986_XFO;
	longitude 530.51449159;
	nominal_voltage 4156.92193817;
	latitude 596.685399782;
};

object node {
	phases CN;
	name n3035999_75_10059296;
	longitude 344.362073191;
	nominal_voltage 4156.92193817;
	latitude 747.834813699;
};

object node {
	phases CN;
	name nnodeFUS_102084;
	longitude 459.675877049;
	nominal_voltage 4156.92193817;
	latitude 745.155047516;
};

object node {
	phases AN;
	name nnodeFUS_102082;
	longitude 447.832712569;
	nominal_voltage 4156.92193817;
	latitude 733.221450698;
};

object node {
	phases ABCN;
	name n3048352_468_10053435_069;
	longitude 571.67866613;
	nominal_voltage 4156.92193817;
	latitude 1191.16119165;
};

object node {
	phases AN;
	name n106938_XFO;
	longitude 479.126399785;
	nominal_voltage 4156.92193817;
	latitude 884.385352274;
};

object node {
	phases BN;
	name n107123_XFO;
	longitude 452.270062024;
	nominal_voltage 4156.92193817;
	latitude 760.37022232;
};

object node {
	phases AN;
	name n593962959_L;
	longitude 525.075805937;
	nominal_voltage 4156.92193817;
	latitude 1090.86124902;
};

object node {
	phases ABCN;
	name n3031408_25_10056480;
	longitude 453.580817741;
	nominal_voltage 4156.92193817;
	latitude 583.05058853;
};

object node {
	phases AN;
	name nFUS_102121;
	longitude 411.430992629;
	nominal_voltage 4156.92193817;
	latitude 849.802746721;
};

object node {
	phases BN;
	name n3039560_725_10054554_107;
	longitude 528.276742748;
	nominal_voltage 4156.92193817;
	latitude 875.63458959;
};

object node {
	phases ABCN;
	name n3047997_537_10053502_156;
	longitude 569.076692439;
	nominal_voltage 4156.92193817;
	latitude 1178.42308214;
};

object node {
	phases AN;
	name n3031562_10055240;
	longitude 501.674299007;
	nominal_voltage 4156.92193817;
	latitude 588.568518317;
};

object node {
	phases BN;
	name n3033755_25_10047673;
	longitude 795.160889921;
	nominal_voltage 4156.92193817;
	latitude 667.282011043;
};

object node {
	phases BN;
	name n107277_XFO;
	longitude 295.808949843;
	nominal_voltage 4156.92193817;
	latitude 907.568217071;
};

object node {
	phases BN;
	name n3041491_75_10059888;
	longitude 321.401314393;
	nominal_voltage 4156.92193817;
	latitude 944.93706016;
};

object node {
	phases BN;
	name n3040440_749_10060550;
	longitude 295.725601008;
	nominal_voltage 4156.92193817;
	latitude 907.217712357;
};

object node {
	phases AN;
	name n107163_XFO;
	longitude 421.326836838;
	nominal_voltage 4156.92193817;
	latitude 701.009283933;
};

object node {
	phases BN;
	name n107269_XFO;
	longitude 256.072947221;
	nominal_voltage 4156.92193817;
	latitude 863.486678817;
};

object node {
	phases BN;
	name nFUS_102128;
	longitude 434.27524109;
	nominal_voltage 4156.92193817;
	latitude 886.396436847;
};

object node {
	phases AN;
	name n3038941_75_10057712;
	longitude 405.797617001;
	nominal_voltage 4156.92193817;
	latitude 853.420175878;
};

object node {
	phases ABCN;
	name n3038821_10057538_001;
	longitude 412.546179619;
	nominal_voltage 4156.92193817;
	latitude 849.08658224;
};

object node {
	phases ABCN;
	name n3038568_906_10057483_756;
	longitude 414.650075499;
	nominal_voltage 4156.92193817;
	latitude 840.039187171;
};

object node {
	phases BN;
	name n107023_XFO;
	longitude 621.128475488;
	nominal_voltage 4156.92193817;
	latitude 628.638575844;
};

object node {
	phases AN;
	name nnodeFUS_102228;
	longitude 556.581149327;
	nominal_voltage 4156.92193817;
	latitude 1082.92756885;
};

object node {
	phases AN;
	name nFUS__27586542;
	longitude 697.116782097;
	nominal_voltage 4156.92193817;
	latitude 549.899189367;
};

object node {
	phases BN;
	name n3031642_75_10051964;
	longitude 628.734173704;
	nominal_voltage 4156.92193817;
	latitude 591.466552986;
};

object node {
	phases AN;
	name n1144084873_L;
	longitude 476.379510156;
	nominal_voltage 4156.92193817;
	latitude 641.821507586;
};

object node {
	phases BN;
	name n3033710_10061465_999;
	longitude 260.198519762;
	nominal_voltage 4156.92193817;
	latitude 665.65803496;
};

object node {
	phases CN;
	name n107110_L;
	longitude 443.13173564;
	nominal_voltage 4156.92193817;
	latitude 803.303663137;
};

object node {
	phases AN;
	name n106857_L;
	longitude 674.371071633;
	nominal_voltage 4156.92193817;
	latitude 552.944985008;
};

object node {
	phases ABCN;
	name n3032553_749_10056104;
	longitude 468.164002383;
	nominal_voltage 4156.92193817;
	latitude 624.161372619;
};

object node {
	phases ABCN;
	name n3032268_617_10056195_957;
	longitude 464.597444112;
	nominal_voltage 4156.92193817;
	latitude 613.92827762;
};

object node {
	phases BN;
	name n52122590_XFO;
	longitude 368.739795295;
	nominal_voltage 4156.92193817;
	latitude 864.711126351;
};

object node {
	phases AN;
	name n3031162_25_10055275_001;
	longitude 500.316782928;
	nominal_voltage 4156.92193817;
	latitude 574.22190087;
};

object node {
	phases AN;
	name n106859_L;
	longitude 678.731910814;
	nominal_voltage 4156.92193817;
	latitude 596.250001745;
};

object node {
	phases CN;
	name n3034435_10061238;
	longitude 269.041475919;
	nominal_voltage 4156.92193817;
	latitude 691.677541275;
};

object node {
	phases AN;
	name n3041682_558_10056374_593;
	longitude 457.669035144;
	nominal_voltage 4156.92193817;
	latitude 951.784963555;
};

object node {
	phases BN;
	name n3032235_75_10055020;
	longitude 510.207013425;
	nominal_voltage 4156.92193817;
	latitude 612.748714704;
};

object node {
	phases BN;
	name n113158_L;
	longitude 694.281532371;
	nominal_voltage 4156.92193817;
	latitude 756.321296078;
};

object node {
	phases ABCN;
	name n3031387_75_10056452;
	longitude 454.666799576;
	nominal_voltage 4156.92193817;
	latitude 582.314864558;
};

object node {
	phases BN;
	name n107004_XFO;
	longitude 594.831095331;
	nominal_voltage 4156.92193817;
	latitude 585.732530481;
};

object node {
	phases BN;
	name n3033616_75_10051163_001;
	longitude 659.800972414;
	nominal_voltage 4156.92193817;
	latitude 662.311388113;
};

object node {
	phases CN;
	name n107289_L;
	longitude 246.581050401;
	nominal_voltage 4156.92193817;
	latitude 704.046184205;
};

object node {
	phases BN;
	name n3034876_5_10050652;
	longitude 679.620179688;
	nominal_voltage 4156.92193817;
	latitude 707.522523397;
};

object node {
	phases CN;
	name n3044369_75_10052708;
	longitude 599.878084945;
	nominal_voltage 4156.92193817;
	latitude 1048.22552799;
};

object node {
	phases CN;
	name n3044249_443_10052471_883;
	longitude 609.035898264;
	nominal_voltage 4156.92193817;
	latitude 1043.90783317;
};

object node {
	phases BN;
	name n3034823_388_10050971_189;
	longitude 667.240413404;
...